
**** 04/03/21 19:41:36 ******* PSpice 17.4.0 (Nov 2018) ******* ID# 0 ********

 ** Profile: "SCHEMATIC1-Simulate"  [ C:\Users\grona\Documents\TMAControl-CClient\hardware\tmacontrol-pspicefiles\schematic1\simulate


 ****     CIRCUIT DESCRIPTION


******************************************************************************




** Creating circuit file "Simulate.cir" 
** WARNING: THIS AUTOMATICALLY GENERATED FILE MAY BE OVERWRITTEN BY SUBSEQUENT SIMULATIONS

*Libraries: 
* Profile Libraries :
* Local Libraries :
* From [PSPICE NETLIST] section of C:\Users\grona\cdssetup\OrCAD_PSpice\17.4.0\PSpice.ini file:
.lib "nom.lib" 

*Analysis directives: 
.TRAN  0 20ms 0 
.OPTIONS ADVCONV
.PROBE64 V(alias(*)) I(alias(*)) W(alias(*)) D(alias(*)) NOISE(alias(*)) 
.INC "..\SCHEMATIC1.net" 



**** INCLUDING SCHEMATIC1.net ****
* source TMACONTROL
X_U1         GPIO.29.PIN40 GPIO.GND.PIN34 PTT.PIN3 GPIO.GND.PIN34 awbpc816
+  PARAMS:                                 
R_R2         PTT.PIN3 GPIO.5V  4.7k TC=0,0 
R_R1         GPIO.29.PIN40 GPIO.GND.PIN34  10k TC=0,0 
V_V2         GPIO.29.PIN40 GPIO.GND.PIN34  
+PULSE 0V 3.3V 0ms 0ms 0ms 5ms 10ms
V_V1         GPIO.5V GPIO.GND.PIN34 5V

**** RESUMING Simulate.cir ****
.END

ERROR(ORPSIM-15142): Node PTT.PIN3 is floating

ERROR(ORPSIM-15142): Node GPIO.5V is floating

ERROR(ORPSIM-15142): Node GPIO.29.PIN40 is floating

ERROR(ORPSIM-15142): Node GPIO.GND.PIN34 is floating

ERROR(ORPSIM-15142): Node X_U1.xinstpc816.6 is floating

ERROR(ORPSIM-15142): Node X_U1.xinstpc816.2 is floating
