
**** 03/27/21 12:07:33 ******* PSpice 17.4.0 (Nov 2018) ******* ID# 0 ********

 ** Profile: "SCHEMATIC1-bias"  [ C:\Users\grona\Documents\TI\tmacontrol-pspicefiles\schematic1\bias.sim ] 


 ****     CIRCUIT DESCRIPTION


******************************************************************************




** Creating circuit file "bias.cir" 
** WARNING: THIS AUTOMATICALLY GENERATED FILE MAY BE OVERWRITTEN BY SUBSEQUENT SIMULATIONS

*Libraries: 
* Profile Libraries :
* Local Libraries :
* From [PSPICE NETLIST] section of C:\SPB_Data\cdssetup\OrCAD_PSpice\17.4.0\PSpice.ini file:
.lib "nom.lib" 

*Analysis directives: 
.OPTIONS ADVCONV
.PROBE64 V(alias(*)) I(alias(*)) W(alias(*)) D(alias(*)) NOISE(alias(*)) 
.INC "..\SCHEMATIC1.net" 



**** INCLUDING SCHEMATIC1.net ****
* source TMACONTROL
.EXTERNAL INPUT GPIO.29
.EXTERNAL INPUT GPIO.28
.EXTERNAL INPUT OUT
X_U1         N14404 0 OUT 0 awbpc816 PARAMS:                                 
R_R1         GPIO.29 N14404  4.7k TC=0,0 
R_R2         OUT +5V  4.7k TC=0,0 

**** RESUMING bias.cir ****
.END

ERROR(ORPSIM-15141): Less than 2 connections at node GPIO.29.

ERROR(ORPSIM-15141): Less than 2 connections at node +5V.
